50

F1        -7.40952        1.91476       -4.55057
F1        -6.31057        1.90657       -2.75272
F1        -7.54754        3.49131       -3.09951
C10       -6.73320        2.68573       -3.69023
H2        -4.94517        3.91964       -3.56660
H2        -5.89748        4.17667       -5.06350
C3        -5.53757        3.39910       -4.35165
H2        -5.18715        1.92102       -5.93288
H2        -4.35600        1.58003       -4.38267
C2        -4.63911        2.38579       -5.08605
H1        -2.72589        3.41341       -4.75829
H1        -3.55629        3.89335       -6.28324
C1        -3.27772        3.13635       -5.66094
N1        -2.51013        2.07476       -6.35139
C6        -1.86814        0.55878       -7.86301
H3        -1.74572       -0.12434       -8.70915
N1        -0.96622        0.57643       -6.80645
C5        -1.36089        1.50534       -5.89325
H4        -0.84494        1.75250       -4.95218
C6        -2.85007        1.50232       -7.57052
H3        -3.73886        1.79942       -8.13438
C1         0.23715       -0.28260       -6.71321
H1         0.02925       -1.18949       -7.31223
H1         0.38370       -0.56704       -5.65395
H1         1.11436        0.26383       -7.10618
F5          -1.09800        4.66978        3.85673
F4          -0.51731        6.15278        2.14971
F4          -2.17249        3.29218        2.24863
P1          -1.33857        4.72176        2.22592
C11          0.29437        3.72303        2.02567
C13         -1.57581        4.87741        0.30571
C11         -2.98958        5.62817        2.64921
F2          -0.35812        4.86272       -0.31009
F2          -2.11627        6.09246        0.01331
F2           1.34611        4.49028        1.63930
F2           0.14022        2.75187        1.08377
F2          -3.56150        5.02137        3.72402
F2          -3.92415        5.57339        1.66098
C12         -2.89727        7.11185        3.03324
C12         -2.41399        3.85003       -0.48068
C12          0.81034        2.96885        3.26726
F3          -1.86145        2.63971       -0.47573
F3           1.29986        3.79479        4.19032
F3           1.82307        2.16248        2.89435
F3          -0.12017        2.19669        3.82153
F3          -2.48582        4.24621       -1.76663
F3          -3.66193        3.73549       -0.03626
F3          -2.05395        7.31309        4.04386
F3          -4.10895        7.54287        3.43555
F3          -2.53339        7.87890        2.00838
